0References/Arquivos em formato PWF/Casos08-05/PD 2032-PESADA_NORTE UMIDO_2034.PWF
(
( Gravacao de .PWF - CART
( Versao do Anarede: 11.06.02
( Data e Hora da Gravacao: 08/05/2023 - 16:54:19                                                           
(
TITU
**CASO PROSPECTIVO** PESADA ** ANO 2034 ** NORTE UMIDO                          
DAGR
(AG (         D E S C R I C A O        )
  1 Estado                               
(ID O (       Nome de Identificacao      )
  1   Acre                                 
  2   Alagoas                              
  3   Amazonas                             
  4   Amapá                                
  5   Bahia                                
  6   Ceará                                
  7   Distrito Federal                     
  8   Espírito Santo                       
  9   Goiás                                
 10   Maranhão                             
 11   Minas Gerais                         
 12   Mato Grosso do Sul                   
 13   Mato Grosso                          
 14   Pará                                 
 15   Paraíba                              
 16   Pernambuco                           
 17   Piauí                                
 18   Paraná                               
 19   Rio de Janeiro                       
 20   Rio Grande do Norte                  
 21   Rondônia                             
 22   Roraima                              
 23   Rio Grande do Sul                    
 24   Santa Catarina                       
 25   Sergipe                              
 26   São Paulo                            
 27   Tocantins                            
FAGR
(AG (         D E S C R I C A O        )
  2 Estado_Para                          
(ID O (       Nome de Identificacao      )
  1   Acre                                 
  2   Alagoas                              
  3   Amazonas                             
  4   Amapá                                
  5   Bahia                                
  6   Ceará                                
  7   Distrito Federal                     
  8   Espírito Santo                       
  9   Goiás                                
 10   Maranhão                             
 11   Minas Gerais                         
 12   Mato Grosso do Sul                   
 13   Mato Grosso                          
 14   Pará                                 
 15   Paraíba                              
 16   Pernambuco                           
 17   Piauí                                
 18   Paraná                               
 19   Rio de Janeiro                       
 20   Rio Grande do Norte                  
 21   Rondônia                             
 22   Roraima                              
 23   Rio Grande do Sul                    
 24   Santa Catarina                       
 25   Sergipe                              
 26   São Paulo                            
 27   Tocantins                            
FAGR
(AG (         D E S C R I C A O        )
  3 Região                               
(ID O (       Nome de Identificacao      )
  1   Norte                                
  2   Nordeste                             
  3   Centro Oeste                         
  4   Sudeste                              
  5   Sul                                  
FAGR
(AG (         D E S C R I C A O        )
  4 Tipo de Geração                      
(ID O (       Nome de Identificacao      )
  1   Compensador Estático                 
  2   Eólica                               
  3   Pequena Central Hidroelétrica        
  4   Compensador Síncrono                 
  5   Usina Hidroelétrica                  
  6   Usina Nuclear                        
  7   Usina Termelétrica                   
  8   Usina Fotovoltáica                   
  9   Usina Indicativa                     
FAGR
(AG (         D E S C R I C A O        )
  5 Classificação Instalação             
(ID O (       Nome de Identificacao      )
  1   Rede Básica                          
  2   Rede de Fronteira                    
  3   Rede de Distribuição                 
  4   Rede de Uso Exclusivo                
  5   Demais Instalações de Transmissão    
FAGR
99999
DOPC IMPR
(Op) E (Op) E (Op) E (Op) E (Op) E (Op) E (Op) E (Op) E (Op) E (Op) E
QLIM L VLIM L CREM L CTAP L STEP L NEWT L RCVG L RMON L FILE L CONT L
CELO L MFCT L ATCR L CPHS L IANG L
99999
DCTE
(Mn) ( Val) (Mn) ( Val) (Mn) ( Val) (Mn) ( Val) (Mn) ( Val) (Mn) ( Val) 
BASE   100. DASE   100. TEPA     1. EXST     4. TETP     5. TBPA     5.
TLPP     1. TEPR     1. QLST     4. TLPR     1. TLPQ     2. TSBZ    .01
TSBA     5. ASTP    .05 VSTP     5. TLVC   .001 TLTC    .01 TSFR  .1E-7
ZMAX   500. TLPV     .5 VDVM   200. VDVN    40. TUDC   .001 TADC    .01
PGER    30. TPST     2. VFLD    70. ZMIN   .001 HIST    470 LFIT     10
ACIT    150 LFCV      1 DCIT     10 VSIT     10 LPIT     50 LFLP     10
PDIT     10 LCRT     24 LPRT     60 CSTP     5. ASDC     1.
ICIT     30 DMAX      5 FDIV     2. ICMN    .05 VART     5. TSTP     32
ICMV     .5 APAS    90. CPAR    70. VAVT     2. VAVF     5. VMVF    15.
VPVT     2. VPVF     5. VPMF    10. VSVF    20. VINF     1. VSUP     1.
TLSI     0. NDIR    20. STTR     5. TRPT   100. STIR     1. BFPO     1.
LFPO     .1 TLMT     .5 TLMF     .5 TLMG     .5 PARS    10.            
99999
DBAR
(Num)OETGb(   nome   )Gl( V)( A)( Pg)( Qg)( Qn)( Qm)(Bc  )( Pl)( Ql)( Sh)Are(Vf)M(1)(2)(3)(4)(5)(6)(7)(8)(9)(10
    1 L1 DPAF1-1UHE013 2100870.2112.9.7153 -18.  24.                       51000   5     2  5  4                   
    4 L1 DPAF2A1UHE013 2 98270.6  70..9189 -39.  23.                       51000   5     2  5  4                   
    5 L1 DPAF2A2UHE013 2 98270.9  70.1.318 -39.  23.                       51000   5     2  5  4                   
    6 L1 DPAF2A3UHE013 2 98473.2  70. 4.52 -39.  25.                       51000   5     2  5  4                   
    7 L1 DPAF2B1UHE013 2 99068.7  51.5.771 -67.  54.                       51000   5     2  5  4                   
    8 L1 DPAF2B2UHE013 2 99269.7  51. 6.39 -67.  54.                       51000   5     2  5  4                   
    9 L1 DPAF2B3UHE013 2 99269.6  51.6.356 -67.  54.                       51000   5     2  5  4                   
   10 L1 DPAF3-1UHE013 2 99469.7 302.-97.6-288. 194.                       51000   5     2  5  4                   
   11 L1 DPAF3-2UHE013 2 99368.7 151.-27.1-144.  97.                       51000   5     2  5  4                   
   14 L1 DPAF4-1UHE013 2 97467.91431.-412.-920. 820.                       51000   5     2  5  4                   
   21 L1 DSOBRA1UHE013 2 98061.7 659.-195.-340. 485.                       61000   5     2  5  4                   
   22 D1 DSOBRM2SIN013  105019.3   0.-5.08 -58.  86.                       61000   5     2  4  4                   
   28 L1 DASALE1UHE013 2 990 69.105.48.898 -86.  96.                       51000   2     2  5  4                   
   29 L1 DASALE2UHE013 2 98667.5105.418.97 -86.  96.                       51000   2     2  5  4                   
   33 L1 DLGONZ1UHE013 2102966.1433.1-173.-240. 250.                       51000  16     2  5  4                   
   34 L1 DLGONZ2UHE013 2102966.1433.1-173.-240. 250.                       51000  16     2  5  4                   
   35 L  ZLGONZA-PE000 E105361.3                                           51000  16     2     2                   
   44 L1 DBESPE1UHE013 2101157.7 47.18.632 -26.  26.                       41000  17     2  5  4                   
   46 L1 DBESPE3UHE013 2101658.3 53.111.64 -40.  37.                       41000  17     2  5  4                   
   47 D1 DBESPM4SIN013  100021.3   0.-3.65 -19.  29.                       41000  17     2  4  4                   
   48 L1 DPCAVA1UHE013 2100142.2119.8-3.31-101.  78.                       11000   5     2  5  4                   
   50 L1 DTUC1-5UHE013 2 98784.31575.-125.-525. 525.                       7 995  14     1  5  4                   
   52 L1 DTUC1-3UHE013 2 99084.3 945.-47.5-315. 315.                       7 995  14     1  5  4                   
   54 L1 DTUC1-4UHE013 2 98884.31260.-82.2-420. 420.                       7 995  14     1  5  4                   
   63 L1 DFUNIL1UHE013 2100635.7 22.2.1547 -8.9 11.1                       11000   5     2  5  4                   
   68 D1 DRGONCAUHE013 21010.875   0.   0.   0.   0.                       41000  17     2  5  4                   
   69 D1 DURUCUIUHE013 2100021.3   0.   0.   0.   0.                       41000  17     2  5  4                   
   70 L1 DTUC2-4UHE013 2 98186.31404.-100.-472. 472.                       7 995  14     1  5  4                   
   71 L1 DTUC2-7UHE013 2 97386.42457.-285.-826. 826.                       7 995  14     1  5  4                   
   72 D1 DTUC1-ASIN013 21000 -4.   0.   0.-700. 420.                       71000  14     1  4  4                   
   73 D1 DTUC1-BSIN013 2100873.7   0.-280.-280. 175.                       71000  14     1  4  4                   
   74 L1 DE.PCEMUTE013 2 99763.7   0.   0.   0.   0.                     1021000   6     2  7  4                   
   77 D1 DSQUEBRUHE013 2101528.6   0.   0.   0.   0.                       71050  10     2  5  4                   
   80 L1 DESTREIUHE013 21027 72.978.4-198.-541. 541.                       71000  10     2  5  4                   
   86 D1 DCASTELUHE013 2100011.9   0.   0.   0.   0.                       41000  17     2  5  4                   
   87 D1 DESTRE-UHE013 2102511.8   0.   0.   0.   0.                       41000  17     2  5  4                   
   88 D1 DCACHEAUHE013 2100011.4   0.   0.   0.   0.                       41000  17     2  5  4                   
   89 L1 DXINGO1UHE013 2 99067.61883.-156.-880. 692.                       51000  25     2  5  4                   
   95 L1 DITAPE1UHE013 2 99236.9 333.-16.9-321. 192.                       11000   5     2  5  4                   
   96 L1 DSUAPE1UTE013 2100457.6   0.   0.   0.   0.                       21000  16     2  7  4                   
   97 L1 DSUAPE2UTE013 2100457.6   0.   0.   0.   0.                       21000  16     2  7  4                   
   98 L1 DSUAPE3UTE013 2100457.6   0.   0.   0.   0.                       21000  16     2  7  4                   
   99 L1 DSUAPE4UTE013 2100457.6   0.   0.   0.   0.                       21000  16     2  7  4                   
  100 L1 DSUAPE5UTE013 2100457.6   0.   0.   0.   0.                       21000  16     2  7  4                   
  101 L1 DSUAPE6UTE013 2100457.6   0.   0.   0.   0.                       21000  16     2  7  4                   
  102 L1 DMARAC1UTE013 2 99963.5   0.   0.   0.   0.                     1021000   6     2  7  4                   
  103 L  MS.BONF-BA138  100752.4                          168.746.34     1081000   5     2     5                   
  104 L1 DPERNA3UTE013 2100857.5   0.   0.   0.   0.                       21000  16     2  7  4                   
  108 L1 DMURICYUTE013 2100341.8   0.   0.   0.   0.                       11000   5     2  7  4                   
  109 L1 ACAMAPAUTE007 2100341.8   0.   0.   0.   0.                       11000   5     2  7  4                   
  110 L  OPROSPE-BA230  101143.8                                           11000   5     2     1                   
  111 L1 DPROSP2UTE013  100049.835.491.764-10.6 14.2                       11000   5     2  7  4                   
  112 L1 DPROSP1UTE013  101144.926.62.5945-17.1  21.                       11000   5     2  7  4                   
  115 L  MP.FRAN-MA138  101152.1                          14.332.044     1091045  10     2     5                   
  120 L  MB.NOME-PE138   99756.4                          159.513.28     1051000  16     2     5                   
  121 L  DMLG-RE-CE013   992 59.                                         1021000   6     2     2                   
  122 L  MBNOME2-PE138  100659.6                                         1051000  16     2     2                   
  125 L  DFORTAB-CE013  100163.5                                         1021000   6     2     2                   
  127 L  MPIRIPI-PI138  101356.4                          29.65-2.88     1011000  17     2     5                   
  128 L1 DGLOB1-UTE013 2100041.9   0.   0.   0.   0.                       11000   5     2  7  4                   
  129 L1 DGLOB2-UTE013 2100041.9   0.   0.   0.   0.                       11000   5     2  7  4                   
  130 D1 DTERMPBUTE013 21001103.   0.   0.   0.   0.                       21000  15     2  7  4                   
  131 L  MMIRAND-MA138 2101048.6                           147.10.79     1091045  10     2     5                   
  137 D1 DTERMNEUTE013 21001103.   0.   0.   0.   0.                       21000  15     2  7  4                   
  138 L  OEPASA--PB230  100256.9                                           21000  15     2     1                   
  139 L1 DCABO--UTE013 2100053.1   0.   0.   0.   0.                       11000  16     2  7  4                   
  140 L1 DBAHIA1UTE013   99744.3   0.   0.   0.   0.        1.2   0.     1081000   5     2  7  4                   
  141 L  OSUAPE--PE230  100457.6                                           21000  16     2     1                   
  142 L  JMARAC1-CE069   99963.5                                         1021000   6     2     3                   
  145 L  MS.CRUZ-RN138   99968.1                                         1031000  20     2     3                   
  146 L1 MPILOES-PB138   99653.4   0.48.06-999999999      81.1425.63  10.1041000  15     2     3                   
  147 L  ZSUAPE1-PE000 E100457.6                                           21000  16     2     2                   
  148 L  ZSUAPE2-PE000 E100457.6                                           21000  16     2     2                   
  149 L  ZSUAPE3-PE000 E100457.6                                           21000  16     2     2                   
  150 L  JCAMAC1-BA069   99844.6                                         1081000   5     2     3                   
  151 L  MAÇU2---RN138  101275.6                          11.83-2.06     1031000  20     2     5                   
  152 L  MS.MATO-RN138  100274.7                                         1031000  20     2     3                   
  160 L1 DTERPEGUTE013 2100963.8313.531.22-128. 223.                       21000  16     2  7  4                   
  161 L1 DTERPEVUTE013 2100663.2197.313.34-107.149.9                       21000  16     2  7  4                   
  162 L  MT.FREI-BA138   98920.8                          92.6835.65     1081000   5     2     5                   
  164 D1 DTUPIRAUHE013 2104063.2   0.   0.   0.   0.                       81040  27     1  5  4                   
  166 L  SC.M.1-CAP500 41058 59.                                           81062  27     1     1                   
  167 L1 DLAJEADUHE013 2 98461.2 810.-88.7-285. 285.                       81050  27     1  5  4                   
  169 L  MEUNAPO-BA138  101222.8                          174.842.19     1081000   5     2     5                   
  170 L1 DCFURTAUTE013 2101047.2176.625.89-114. 158.                       1 950   5     2  7  4                   
  172 L1 DVERACEUTE013 2100031.332.55-4.73 -72.  72.                       11000   5     2  7  4                   
  174 L  ZCMDCS--BA000 E100044.5                                           11000   5     2     2                   
  176 L  LFUNIL--BA115  101627.2                                         1081000   5     2     2                   
  180 L1 DB.PULPUTE013  100248.542.08   0.   0.   0.       12.5   0.     1081000   5     2  7  4                   
  181 L  JB.PULP-BA069  100346.1                                         1081000   5     2     3                   
  182 L  JCOPEC--BA069  100045.7                                         1081000   5     2     3                   
  183 L  MIRECE--BA138  100340.4                          114.7-4.58     1081000   5     2     5                   
  186 L  MBARREI-BA138  100236.7                           97.2-18.8     1081000   5     2     5                   
  188 L  MIBICOA-BA138  100129.8                          53.73-7.94     1081000   5     2     5                   
  190 L  OPIMENT-PA230  1008 80.                                           71000  14     1     1                   
  191 L  SCOLITACAP500 4101773.7                                           71000  14     1     1                   
  192 L  MST.MAR-PA138 2103758.2                                         1101000  14     1     5                   
  195 L1 DPIMENTUHE013 2 99984.9209.7-13.8 -39.  72.                       71000  14     1  5  4                   
  196 D1 DCGRD--UTE013 2 995107.   0.   0.   0.   0.                       21000  15     2  7  4                   
  197 L  SMARAB3CAP500 4107061.8                                           71085  14     1     1                   
  198 L  ZVCOND2-PA000 E100562.1                                           7 999  14     1     2                   
  199 L1 DMARABASIN013 2100165.2   0..4977 -90. 150.                       71050  14     1  4  4                   
  200 L  OPAF3-A-BA230  1025 65.                                           51000   5     2     1                   
  202 L  OJUAZE2-BA230  100455.7                                           61000   5     2     1                   
  203 L  OS.BONF-BA230   99555.1                                           61000   5     2     1                   
  204 L  OSCHIN--MA230   97443.7                          4.8891.607     1091000  10     2     1                   
  205 L  OBROTAS-BA230  1020 41.                                           61000   5     2     1                   
  206 L  OSOBRAD-BA230  100457.3                                           61000   5     2     1                   
  207 L  OJAGUAR-BA230   99754.8                          4.4131.564     1081000   5     2     1                   
  208 L  OZEBUII-AL230  100256.5                                           51000   2     2     1                   
  209 L  OPOCOE2-BA230  101029.2                                         1081000   5     2     1                   
  210 L  ORGONCA-PI230  101355.3                                           41000  17     2     1                   
  211 D  OCASTEL-PI230  103821.8                                           41000  17     2     1                   
  212 L  OFLORII-PE230  101156.4                                           51000  16     2     1                   
  213 L  OITAGIB-BA230  100128.7                                           11000   5     2     1                   
  214 L  OEMBASA-BA230   99638.5                            9.8  8.1       11000   5     2     1                   
  215 L  OBALSAS-MA230  100753.6                                           71000  10     2     1                   
  216 L  OTAUA2--CE230   99553.1                                           31000   6     2     1                   
  217 L  OICO----CE230  102761.4                                           31000   6     2     1                   
  218 L  OCAUIPE-CE230   99767.6                                           31000   6     2     1                   
  219 L  OD.GOUV-CE230   99665.6                                           31000   6     2     1                   
  220 L  OBOM-NO-PE230  100759.3                                           31000  16     2     1                   
  221 L  OMILAGR-CE230  104261.2                                           31000   6     2     1                   
  222 L  OBANABU-CE230  101365.4                                           31000   6     2     1                   
  223 L  ORUSSA2-CE230  100270.3                                           31000   6     2     1                   
  224 L  OMOSSR2-RN230   99971.5                                     -20.  31000  20     2     1                   
  225 L  OFORTAL-CE230   99665.8                                           31000   6     2     1                   
  226 L  OSOBRAL-CE230   98963.8                                           31000   6     2     1                   
  227 L  OPIRIPI-PI230  1019 57.                                           41000  17     2     1                   
  228 L  OTERES--PI230   99450.6                                           41000  17     2     1                   
  229 L  OB.ESPE-PI230   99952.6                                           41000  17     2     1                   
  230 L  OPERITO-MA230   99244.7                                           71055  10     2     1                   
  231 L  OMIRAND-MA230  100551.5                                           71050  10     2     1                   
  232 L  OSLUIS1-MA230  103653.6                                           71039  10     2     1                   
  233 L  OCOREM2-PB230   95653.7                                           31000  15     2     1                   
  234 L  OPICI2--CE230   98664.5                                           31000   6     2     1                   
  235 L  OCASTAN-PA230  100662.3                                           71048  14     1     1                   
  236 L  OC.NETO-MA230   986 46.                                           71049  10     2     1                   
  237 L  OS.J.PI-PI230  1014 56.                                           41000  17     2     1                   
  238 L  OP.DUTR-MA230  101051.1                                           71040  10     2     1                   
  239 L  OIMPERA-MA230  102757.9                                           7 997  10     2     1                   
  240 L  OANGELI-PE230  100958.6                                           21000  16     2     1                   
  241 L  ORECIFE-PE230  100955.7                                           21000  16     2     1                   
  242 L  OR.LAR--AL230  100854.8                                           21000   2     2     1                   
  243 L  OBONGI--PE230  100755.2                                           21000  16     2     1                   
  244 L  OCGRD2B-PB230  100262.4                                           21000  15     2     1                   
  245 L  OSRITA2-PB230  100156.7                                           21000  15     2     1                   
  246 L  ONATAL2-RN230   99568.9                                           21000  20     2     1                   
  247 L  OGOIANI-PE230   99956.3                                           21000  16     2     1                   
  248 L  OMUSSU2-PB230  100256.9                                           21000  15     2     1                   
  249 L  OPIRAPA-PE230  100056.4                                           21000  16     2     1                   
  250 L  OMIRUEI-PE230   98553.6                             3.  2.1       21000  16     2     1                   
  251 L  OAÇU2---RN230   99775.6                                           21000  20     2     1                   
  252 L  ORIBEIR-PE230   98154.1                                           21000  16     2     1                   
  253 L  OSUAPE3-PE230  100357.8                                           21000  16     2     1                   
  254 L  OJOAIRA-PE230  100755.3                                           21000  16     2     1                   
  255 L  OTACAIM-PE230   98557.3                                           21000  16     2     1                   
  256 L  OLCARRO-PE230   99757.9                                           21000  16     2     1                   
  257 L  OBNOME2-PE230  100759.6                                           31000  16     2     1                   
  258 L  OPENEDO-AL230  100550.6                                           21000   2     2     1                   
  259 L  OMACEIO-AL230  100754.9                                           21000   2     2     1                   
  260 L  OPAU-FE-PE230  100857.5                                           21000  16     2     1                   
  261 L  OMIRUE2-PE230  100356.8                                           21000  16     2     1                   
  262 L  OT.FREI-BA230  100722.5                                           11000   5     2     1                   
  263 L  OITAPEB-BA230  100829.1                                           11000   5     2     1                   
  264 L  OS.A.JE-BA230  1009 38.                                           11000   5     2     1                   
  265 L  OITBANI-SE230   99942.4                                           11000  25     2     1                   
  266 L  OTOMBA--BA230   97936.6                                           11000   5     2     1                   
  267 L  OVERACE-BA230  1006 29.                            75. 17.8     1171000   5     2     1                   
  268 L  ONARAND-BA230   99540.8                                           11000   5     2     1                   
  269 L  OEUNAPO-BA230   99425.9                                           11000   5     2     1                   
  270 L  OC.DANT-BA230   99461.1                                           11000   5     2     1                   
  271 L  OITABAI-SE230  100556.3                                           11000  25     2     1                   
  272 L  OCATU---BA230   99640.4                                           11000   5     2     1                   
  273 L  OJARDIM-SE230  101456.6                                           11000  25     2     1                   
  274 L  OCMACB1-BA230  100044.5                                           11000   5     2     1                   
  275 L  OG.MANG-BA230  100339.2                                           11000   5     2     1                   
  276 L  OFUNIL--BA230  100428.9                                           11000   5     2     1                   
  277 L  OMATATU-BA230   99440.6                                           11000   5     2     1                   
  278 L  OPITUAC-BA230   995 41.                                           11000   5     2     1                   
  279 L  OCOTEGI-BA230   99441.4                                           11000   5     2     1                   
  280 L  OJACARA-BA230  100041.9                                           11000   5     2     1                   
  281 L  OD.PITU-BA230   995 41.                                           11000   5     2     1                   
  283 L  OIRECE--BA230  100142.2                                           61000   5     2     1                   
  284 L  OCAMAC4-BA230  100842.4                                           11000   5     2     1                   
  285 L  OBJLAPA-BA230   99432.7                                           61000   5     2     1                   
  286 L  OBARREI-BA230  100237.2                                           61000   5     2     1                   
  287 L  OE.MART-PI230  101448.8                                           41000  17     2     1                   
  288 L  OIBICOA-BA230  101431.4                                           61078   5     2     1                   
  289 L  OSAPEAC-BA230  101439.7                                           11000   5     2     1                   
  290 L  OPARAIS-RN230  100569.8                                           21000  20     2     1                   
  291 L  OUTINGA-PA230  1009 64.                                           71034  14     1     1                   
  292 L  OST.MAR-PA230  100660.8                                           71043  14     1     1                   
  293 L  OMIRAMA-PA230  100563.4                                           71039  14     1     1                   
  294 L  OCMACB2-BA230  100944.1                                           11000   5     2     1                   
  295 L  OPICOS--PI230   98555.1                                           41000  17     2     1                   
  296 L  OZEBU3--AL230  100456.6                                           31000   2     2     1                   
  297 L  OTUCURU-PA230  101975.9                                           71040  14     1     1                   
  298 L  OV.COND-PA230  101165.3                                           71050  14     1     1                   
  299 L  OMARABA-PA230  100165.2                                           71044  14     1     1                   
...
99999
DLIN
(De )d O d(Pa )NcEPM( R% )( X% )(Mvar)(Tap)(Tmn)(Tmx)(Phs)(Bc  )(Cn)(Ce)Ns(Cq)(1)(2)(3)(4)(5)(6)(7)(8)(9)(10
   33        35 1          2.055      1.015                     99999999  9999 16 16                          
   34        35 1          2.055      1.015                     99999999  9999 16 16                          
   72       597 1           3.44       1.05                     810.972.  1512 14 14                          
   73       597 1           3.44       1.05                     810.972.  1890 14 14                          
   80       570 1         1.2904         1.                     950.1185  950. 10 10                          
  104     12104 1         4.8075         1.                     230.230.  250. 16 16                          
  108       381 1            7.5         1.                     200.200.  200.  5  5                          
  109       381 1           5.78         1.                     200.200.  200.  5  5                          
  110       284 1    .37042.18254.0731                          279.349.  283.  5  5                          
  111       110 1  N      30.434      .9898   .9  1.1        111 46. 46.32 46.  5  5                          
  112       110 1           7.88         1.                      42. 42.   40.  5  5                          
  115       415 1           -.49         1.                     100.103.  103. 10 10                          
  115       815 1           -.49         1.                     100.103.  103. 10 10                          
  115       816 1           -.49         1.                     100.120.  120. 10 10                          
  115      9800 1 T  1.018 2.181 .5789                          112.127.  112. 10 27                          
  115      9800 2 T  1.018 2.181 .5789                          112.127.  112. 10 27                          
  120     58098 1     5.59   15.  3.41                          132.132.  132. 16 16                          
  120     58098 2     5.59   15.  3.41                          132.132.  132. 16 16                          
  128       280 1             8.         1.                     150.150.  150.  5  5                          
  129       280 1             8.         1.                     150.150.  150.  5  5                          
  130       138 1         8.0789         1.                     200.200.  200. 15 15                          
  131       531 1           -.65         1.                     100.103.  100. 10 10                          
  131       731 1           -.65         1.                     100.103.  100. 10 10                          
  131       732 1           -.65         1.                     100.103.  100. 10 10                          
  137       138 1           8.08         1.                     200.200.  200. 15 15                          
  138       248 1      .01   .02   .06                          478.478.  478. 15 15                          
  139       649 1          20.12         1.                     99999999  9999 16 16                          
  141       147 1          -3.63         1.                     99999999  9999 16 16                          
  141       148 1          -3.63         1.                     99999999  9999 16 16                          
  141       149 1          -3.63         1.                     99999999  9999 16 16                          
  141       353 1     .092  .459 .8932                          99999999  9999 16 16                          
  141       353 2     .092  .459 .8932                          99999999  9999 16 16                          
  142       102 1           7.32         1.                     99999999  9999  6  6                          
  142       625 1    1.328 4.662                                99999999  9999  6  6                          
  145       645 1          25.33      .9914   .9  1.1       -645 45. 45.32 45. 20 20                          
  145       645 2            26.      .9914   .9  1.1       -645 50. 50.32 50. 20 20                          
  145       694 1            26.      .9913   .9  1.1       -694 50. 50.32 50. 20 15                          
  146       445 1      8.9 27.86   7.2                           68.688.   68. 15 20                          
  147        96 1          19.31         1.                     99999999  9999 16 16                          
  147        97 1          23.24         1.                     99999999  9999 16 16                          
  148        98 1          19.31         1.                     99999999  9999 16 16                          
  148        99 1          23.24         1.                     99999999  9999 16 16                          
  149       100 1          19.31         1.                     99999999  9999 16 16                          
  149       101 1            7.8         1.                     99999999  9999 16 16                          
  150       140 1          63.65         1.                      27. 27.   27.  5  5                          
  150       140 2          63.65         1.                      27. 27.   27.  5  5                          
  151       152 1 T   4.03 13.09   3.1                           68. 68.  118. 20 20                          
  151       152 2    4.17113.009 3.176                          101.101.  101. 20 20                          
  151     56462 1    3.542 19.09  5.53                          167.209.  167. 20 20                          
  152       852 1         131.16        .96                      33. 33.   15. 20 20                          
  152       858 1         131.16        .96                      33. 33.   15. 20 20                          
  162     18554 1     6.47 17.16 4.274                          100.136.  100.  5  5                          
  164       567 1           1.05         1.                     13302700   44. 27 27                          
  166       571 1    .11641.8643265.83                          25982728  2598 27 27                          
  169     18554 1     8.03 21.26  5.99                          100.136.  100.  5  5                          
  169     18600 1     4.27 12.22 2.938                           95.136.   95.  5  5                          
  176        63 1          68.61         1.                      14. 17.   14.  5  5                          
  176       976 1           8.78         1.                      50. 50.   50.  5  5                          
  181       180 1            14.         1.                     99999999  9999  5  5                          
  182       181 1     1.15  2.73  .063                           50. 68.   68.  5  5                          
  182       337 1     1.36  6.03  .105                           75.102.  102.  5  5                          
  182       337 2     1.36  6.03  .105                           75.102.  102.  5  5                          
  186     18510 1   12.11930.121 8.031                          100.136.  100.  5  5                          
  190       195 1          4.074         1.                     270.270.  135. 14 14                          
  191       591 1     .189 3.037 454.1                          25982598  2598 14 27                          
  192     19751 1 T 3.41578.82172.1519                          126.126.  123. 14 14                          
  192     19761 1   6.468712.7643.1468                          105.105.  103. 14 14                          
  192     19761 2   4.933713.3783.0853                          126.126.  103. 14 14                          
  196       244 1            6.7         1.                     220.220.  220. 15 15                          
  197       599 1           -.71                                19922680  1992 14 14                          
  198       698 1          -.458         1.                     200.240.   33. 14 14                          
  200         4 1          13.48       1.04                      75. 90.   75.  5  5                          
  200         5 1          14.22       1.04                      75. 90.   75.  5  5                          
  200         6 1          19.91       1.04                      75. 90.   75.  5  5                          
  200         7 1           12.4       1.04                      90.108.   90.  5  5                          
  200         8 1          15.78       1.04                      90.108.   90.  5  5                          
  200         9 1          15.52       1.04                      90.108.   90.  5  5                          
  200        10 1          2.775         1.                     240.288.  240.  5  5                          
  200       208 1D      .1   .52   .98                          251.317.  317.  5  2                          
  200       270 1     2.45  13.1 22.68                          251.251.  251.  5  5                          
  200       349 1    3.68120.06634.322                          174.247.  247.  5 16                          
  200       500 1          1.414      .9883   .9  1.1        200600.600.32600.  5  5                          
  200       600 1          12.47      1.067   .9  1.1       -600100.100.32100.  5  5                          
  200     11201 1   2.135810.24118.859                          174.247.  247.  5  2                          
  200     11250 1   2.596813.338 25.24                          251.317.  251.  5 25                          
  202       203 1      2.7  13.9 26.26                          251.317.  251.  5  5                          
  202       207 1    1.442  7.05 13.24                          251.317.  251.  5  5                          
  202       602 1          12.47      .9958   .9  1.1       -602100.100.32100.  5  5                          
  202       602 2          12.87      .9958   .9  1.1       -602100.100.32100.  5  5                          
  202       602 3            13.      .9958   .9  1.1       -602100.100.32100.  5  5                          
  202       602 4            13.      .9958   .9  1.1       -602100.120.32100.  5  5                          
  202     11282 1      .07  .065  .254                          550.693.  550.  5  5                          
  203       103 1            9.2      .9734 .7261.117       -103100.100.32100.  5  5                          
  203       103 2           9.21      .9734 .7261.117       -103100.120.32100.  5  5                          
  203       103 3           9.42      .9734 .7261.117       -103100.120.32100.  5  5                          
  203       603 1           59.5      .9844   .9  1.1       -603 33. 33.32 33.  5  5                          
  203       603 2          13.11      .9844   .9  1.1       -603100.100.32 33.  5  5                          
  203       603 3          13.11      .9844   .9  1.1       -603100.100.32100.  5  5                          
  205       283 1      2.4 13.05 23.32                          251.317.  251.  5  5                          
  205     11260 1    2.58312.40522.894                          251.317.  251.  5  5                          
  206       202 1      .78    4.   7.5                          251.317.  251.  5  5                          
  206       202 2      .78    4.   7.5                          251.317.  251.  5  5                          
  206       506 1           3.56      .9534   .9  1.1        206300.300.32300.  5  5                          
  206       506 2           3.56      .9534   .9  1.1        206300.300.32300.  5  5                          
  207       203 1      1.3  6.67 12.52                          251.317.  251.  5  5                          
  207     21036 1      .02  .095  .174                          251.317.  251.  5  5                          
  207     21036 2      .02  .095  .174                          251.317.  251.  5  5                          
  208       708 1          12.81      .9237  .85  1.1       -708100.100.20569.  2  2                          
  208       708 2          12.81      .9237  .85  1.1       -708100.100.20569.  2  2                          
  209       376 1     2.68  13.6 24.87                          250.250.  250.  5  5                          
  209       909 1           11.8      1.012   .9  1.1       -909100.100.32100.  5  5                          
  209       909 2           11.8      1.012   .9  1.1       -909100.100.32100.  5  5                          
  210       215 1    1.516  8.7217.103                          203.251.  251. 17 10                          
  210       215 2    1.516  8.7217.103                          203.251.  251. 17 10                          
  210       657 1          24.26      1.011   .9  1.1       -657 50. 60.32 60. 17 17                          
  210       969 1     .746 3.784 6.982                          200.200.  200. 17 17                          
  211        86 1         14.065         1.                     160.192.  160. 17 17                          
  211        87 1          16.07         1.                     160.192.  160. 17 17                          
  211       228 1    1.867  9.63 16.83                          273.273.  273. 17 17                          
  212       296 1    .49574.8962  19.4                          641.870.  641. 16  2                          
  212     11281 1     .5812.5519 13.25                          400.400.  400. 16 16                          
  212     11281 2    .62142.4722  14.3                          400.400.  400. 16 16                          
  212     21034 1      .02  .095  .174                          251.317.  251. 16 16                          
  212     21034 2      .02  .095  .174                          251.317.  251. 16 16                          
  213       209 1     1.65  8.35 15.27                          250.250.  250.  5  5                          
  213     21045 1      .02  .095  .174                          251.317.  251.  5  5                          
  215       607 1          12.07      .9949   .9  1.1       -607100.120.32120. 10 10                          
  215       607 2          12.07      .9949   .9  1.1       -607100.120.32120. 10 10                          
  216       616 1          12.63      .9862  .851.117       -616100.100.32100.  6  6                          
  216       616 2          12.63      .9862  .851.117       -616100.100.32100.  6  6                          
  216     11217 1   4.113519.91837.174                          291.291.  291.  6  6                          
  217       222 1     2.02  8.63 30.04                          323.478.  380.  6  6                          
  217       222 2     2.038.354431.148                          323.323.  323.  6  6                          
  217       517 1   1.64566.993724.243                          323.478.  323.  6  6                          
  217       517 2    1.6146.630624.664                          323.323.  323.  6  6                          
  217       617 1          12.87      1.009   .9  1.1       -617100.100.32100.  6  6                          
  217       617 2            13.      1.009   .9  1.1       -617100.100.32100.  6  6                          
  217       617 3           12.4      1.009   .9  1.1       -617100.100.32100.  6  6                          
  218       618 1          13.33      .9846   .9  1.1       -618100.100.32100.  6  6                          
  218       618 2          12.72      .9846   .9  1.1       -618100.100.32100.  6  6                          
  218       618 3          12.72      .9846   .9  1.1       -618100.100.32100.  6  6                          
  218     11218 1       .3 2.153 7.981                          476.600.  476.  6  6                          
  219       619 1          12.47      .9992   .9  1.1       -619100.106.32100.  6  6                          
  219       619 2          12.47      .9992   .9  1.1       -619100.106.32100.  6  6                          
  219       619 3          12.47      .9992   .9  1.1       -619100.106.32100.  6  6                          
  219       619 4          12.47      .9992   .9  1.1       -619100.106.32100.  6  6                          
  220       120 1           9.14      1.009   .91.118       -120100.100.32100. 16 16                          
  220       120 2          10.22      1.009   .91.118       -120100.100.32100. 16 16                          
  220       120 3           9.03      1.009   .91.118       -120100.100.32100. 16 16                          
  220       212 1D   1.222 4.86228.122                          400.400.  400. 16 16                          
  220       212 2D  1.25634.9981 28.91                          400.400.  400. 16 16                          
  220       620 1          34.54      .9553   .9  1.1       -620 33. 33.32 33. 16 16                          
  220       620 2          34.64      .9553   .9  1.1       -620 33. 33.32 33. 16 16                          
  220     21035 1      .02  .095  .174                          251.317.  251. 16 16                          
  221       222 1   1.706314.49657.495                          576.777.  174.  6  6                          
  221       233 1     2.18 11.68 20.24                          251.317.  251.  6 15                          
  221       233 2      2.2 11.64  20.3                          291.291.  291.  6 15                          
  221       517 1     .035 .29281.1373                          576.777.  323.  6  6                          
  221       517 2     .035 .29281.1373                          576.777.  576.  6  6                          
  221       521 1           1.27      1.008 .7741.169        221600.600.32600.  6  6                          
  221       521 2           1.27      1.008 .7741.169        221600.600.32600.  6  6                          
  221       521 3           1.27      1.008 .7741.169        221600.600.32600.  6  6                          
  221       621 1            13.      1.021   .9  1.1       -621100.100.32100.  6  6                          
  221       621 2          13.27      1.021   .9  1.1       -621100.102.32100.  6  6                          
  221       621 3          13.23      1.021   .9  1.1       -621100.102.32100.  6  6                          
  221       621 4            13.      1.021 .7261.118       -621100.100.32100.  6  6                          
  222       622 1          13.27      .9957 .8631.117       -622100.100.32103.  6  6                          
  222       622 2          13.27      .9957 .8631.117       -622100.100.32103.  6  6                          
  222       622 3            26.      .9957   .9  1.1       -622 50. 50.32136.  6  6                          
  222       622 4            14.      .9957   .9  1.1       -622100.130.32130.  6  6                          
  222     11219 1    2.853   12. 44.02                          307.392.  308.  6  6                          
  222     11219 2    2.853   12. 44.02                          307.392.  308.  6  6                          
  222     11219 3    2.853   12. 44.02                          307.307.  307.  6  6                          
  222     11220 1    .68553.526212.547                          506.601.  506.  6  6                          
  222     11220 2    .72433.725813.259                          506.601.  506.  6  6                          
  222     21037 1      .02  .095  .174                          251.317.  251.  6  6                          
  223       623 1          12.42      .9945   .9  1.1       -623100.105.32100.  6  6                          
  223       623 2          13.02      .9945   .9  1.1       -623100.105.32100.  6  6                          
  223       623 3            13.      .9945   .9  1.1       -623100.105.32100.  6  6                          
  223     11014 1     .552 2.944  5.08                          251.317.  251.  6  6                          
  223     11220 1     .7954.0904 14.56                          506.601.  506.  6  6                          
  223     11220 2    .75143.865613.757                          506.601.  506.  6  6                          
  223     56071 1     .757 5.76110.395                          200.200.  200.  6  6                          
  224       624 1          12.97      .9924   .9  1.1       -624100.103.32100. 20 20                          
  224       624 2          12.97      .9924   .9  1.1       -624100.103.32100. 20 20                          
  224       624 3          13.28      .9924   .9  1.1       -624100.103.32100. 20 20                          
  224       624 4          13.28      .9924   .9  1.1       -624100.103.32100. 20 20                          
  225       625 1          13.27         1.   .9  1.1       -625100.106.32100.  6  6                          
  225       625 2           12.9         1.   .9  1.1       -625100.106.32100.  6  6                          
  225       625 3          12.98         1.   .9  1.1       -625100.106.32100.  6  6                          
  225       625 4          12.97         1.   .9  1.1       -625100.106.32100.  6  6                          
  225       625 5          12.97         1.   .9  1.1       -625100.106.32100.  6  6                          
  226       218 1 T   3.26 17.55  30.6                          238.300.  300.  6  6                          
  226       326 1     .145 1.021 3.665                          589.742.  589.  6  6                          
  226       326 2     .145 1.021 3.665                          589.742.  589.  6  6                          
  226       626 1          12.37      .9836   .9  1.1       -626100.102.32100.  6  6                          
  226       626 2          12.29      .9836   .9  1.1       -626100.102.32102.  6  6                          
  226       626 3          13.18      .9836   .9  1.1       -626100.100.32100.  6  6                          
  226       626 4          13.18      .9836   .9  1.1       -626100.100.32100.  6  6                          
  226     21038 1      .02  .095  .174                          251.317.  251.  6  6                          
...
99999
DCSC
(De ) O  (Pa )NcEPB      (Xmin)(Xmax)( Xv )C ( Vsp) (Ext)Nst(Cn)(Ce)(Cq)(1)(2)(3)(4)(5)(6)(7)(8)(9)(10
  736      539 1          -1.76  -.59 -.637X  -.637   736   999999999999
99999
DBSH
(NFr) O (NTo) Nc C (Vmn (Vmx Bctrl (Qini) T A (Extr
  121            D 0950 1050   121   -10. C         
(G  O E (U) UOp (Sht ) M
 1        2   2    -5. S
 2        1   0   -10. S
FBAN
(NFr) O (NTo) Nc C (Vmn (Vmx Bctrl (Qini) T A (Extr
  125            D 0950 1050   125    3.1 C         
(G  O E (U) UOp (Sht ) M
 1        3   1    3.1 S
 2        1   0    -5. S
FBAN
(NFr) O (NTo) Nc C (Vmn (Vmx Bctrl (Qini) T A (Extr
  145            D 0950 1050   145   -10. C         
(G  O E (U) UOp (Sht ) M
 1        1   1   -10. S
FBAN
(NFr) O (NTo) Nc C (Vmn (Vmx Bctrl (Qini) T A (Extr
  162            D 0950 1050   162        C         
(G  O E (U) UOp (Sht ) M
 1        1   0    10. S
FBAN
(NFr) O (NTo) Nc C (Vmn (Vmx Bctrl (Qini) T A (Extr
  213            D 0950 1050   213   -10. C         
(G  O E (U) UOp (Sht ) M
 1        1   1   -10. S
 2        1   0   -15. S
FBAN
(NFr) O (NTo) Nc C (Vmn (Vmx Bctrl (Qini) T A (Extr
  216            D 0950 1050   216   -15. C         
(G  O E (U) UOp (Sht ) M
 1        1   1   -15. S
FBAN
(NFr) O (NTo) Nc C (Vmn (Vmx Bctrl (Qini) T A (Extr
  219            D 0950 1050   219        C         
(G  O E (U) UOp (Sht ) M
 1        1   0   50.5 S
FBAN
(NFr) O (NTo) Nc C (Vmn (Vmx Bctrl (Qini) T A (Extr
  221            D 0950 1050   221   50.5 C         
(G  O E (U) UOp (Sht ) M
 1        1   0   -20. S
 2        2   1   50.5 S
FBAN
(NFr) O (NTo) Nc C (Vmn (Vmx Bctrl (Qini) T A (Extr
  222            D 0950 1050   222        C         
(G  O E (U) UOp (Sht ) M
 1        2   0   -20. S
 2        2   0   50.5 S
 3        1   0   -20. S
FBAN
(NFr) O (NTo) Nc C (Vmn (Vmx Bctrl (Qini) T A (Extr
  223            D 0950 1050   223   -20. C         
(G  O E (U) UOp (Sht ) M
 2        1   1   -20. S
FBAN
(NFr) O (NTo) Nc C (Vmn (Vmx Bctrl (Qini) T A (Extr
  225            D 0950 1050   225        C         
(G  O E (U) UOp (Sht ) M
 1        1   0   50.5 S
 2        1   0   -10. S
FBAN
(NFr) O (NTo) Nc C (Vmn (Vmx Bctrl (Qini) T A (Extr
  227            D 0950 1050   227    60. C         
(G  O E (U) UOp (Sht ) M
 1        3   2    30. S
FBAN
(NFr) O (NTo) Nc C (Vmn (Vmx Bctrl (Qini) T A (Extr
  228            D 0950 1050   228   50.5 C         
(G  O E (U) UOp (Sht ) M
 1        1   1   50.5 S
 2        1   0   50.5 S
FBAN
(NFr) O (NTo) Nc C (Vmn (Vmx Bctrl (Qini) T A (Extr
  329     228  1 D 0950 1050   228        C     228 
(G  O E (U) UOp (Sht ) M
 1        1   0   -10. S
FBAN
(NFr) O (NTo) Nc C (Vmn (Vmx Bctrl (Qini) T A (Extr
  211     228  1 D 0950 1050   228        C     228 
(G  O E (U) UOp (Sht ) M
 1        1   0   -10. S
FBAN
(NFr) O (NTo) Nc C (Vmn (Vmx Bctrl (Qini) T A (Extr
  230            D 0950 1050   230    20. C         
(G  O E (U) UOp (Sht ) M
 1        1   1    20. S
FBAN
(NFr) O (NTo) Nc C (Vmn (Vmx Bctrl (Qini) T A (Extr
  231            D 0950 1050   231        C         
(G  O E (U) UOp (Sht ) M
 1        2   0   -10. S
 2        2   0    20. S
FBAN
(NFr) O (NTo) Nc C (Vmn (Vmx Bctrl (Qini) T A (Extr
  236            D 0950 1050   236   -15. C         
(G  O E (U) UOp (Sht ) M
 1        1   1   -15. S
FBAN
(NFr) O (NTo) Nc C (Vmn (Vmx Bctrl (Qini) T A (Extr
  228     236  1 D 0950 1050   236        C     236 
(G  O E (U) UOp (Sht ) M
 1        1   0    -5. S
FBAN
(NFr) O (NTo) Nc C (Vmn (Vmx Bctrl (Qini) T A (Extr
19099     236  1 D 0950 1050   236        C     236 
(G  O E (U) UOp (Sht ) M
 1        1   0   -20. S
FBAN
(NFr) O (NTo) Nc C (Vmn (Vmx Bctrl (Qini) T A (Extr
  241            D 0950 1050   241   50.5 C         
(G  O E (U) UOp (Sht ) M
 1        2   1   50.5 S
FBAN
(NFr) O (NTo) Nc C (Vmn (Vmx Bctrl (Qini) T A (Extr
  246            D 0950 1050   246   -30. C         
(G  O E (U) UOp (Sht ) M
 1        1   1   -30. S
FBAN
(NFr) O (NTo) Nc C (Vmn (Vmx Bctrl (Qini) T A (Extr
  290     246  1 D 0950 1050   246        C     246 
(G  O E (U) UOp (Sht ) M
 1        1   0   -10. S
FBAN
(NFr) O (NTo) Nc C (Vmn (Vmx Bctrl (Qini) T A (Extr
  246     346  1 D 0950 1050   246        C     246 
(G  O E (U) UOp (Sht ) M
 1        1   0   -9.9 S
FBAN
(NFr) O (NTo) Nc C (Vmn (Vmx Bctrl (Qini) T A (Extr
  247            D 0950 1050   247        C         
(G  O E (U) UOp (Sht ) M
 1        1   0   -10. S
FBAN
(NFr) O (NTo) Nc C (Vmn (Vmx Bctrl (Qini) T A (Extr
  258            D 0950 1050   258    30. C         
(G  O E (U) UOp (Sht ) M
 1        3   2    15. S
FBAN
(NFr) O (NTo) Nc C (Vmn (Vmx Bctrl (Qini) T A (Extr
  261            D 0950 1050   261        C         
(G  O E (U) UOp (Sht ) M
 1        1   0    63. S
FBAN
(NFr) O (NTo) Nc C (Vmn (Vmx Bctrl (Qini) T A (Extr
  265            D 0950 1050   265        C         
(G  O E (U) UOp (Sht ) M
 1        1   0    50. S
FBAN
(NFr) O (NTo) Nc C (Vmn (Vmx Bctrl (Qini) T A (Extr
  269            D 0950 1050   269        C         
(G  O E (U) UOp (Sht ) M
 1        1   0  -22.2 S
 2        1   0    20. S
FBAN
(NFr) O (NTo) Nc C (Vmn (Vmx Bctrl (Qini) T A (Extr
  276            D 0950 1050   276        C         
(G  O E (U) UOp (Sht ) M
 1        2   0   50.5 S
 2        1   0   -20. S
 3        1   0  -22.2 S
FBAN
(NFr) O (NTo) Nc C (Vmn (Vmx Bctrl (Qini) T A (Extr
  283            D 0950 1050   283        C         
(G  O E (U) UOp (Sht ) M
 1        1   0   100. S
FBAN
(NFr) O (NTo) Nc C (Vmn (Vmx Bctrl (Qini) T A (Extr
  285            D 0950 1050   285   -10. C         
(G  O E (U) UOp (Sht ) M
 1        1   1   -10. S
FBAN
(NFr) O (NTo) Nc C (Vmn (Vmx Bctrl (Qini) T A (Extr
  285     205  1 D 0950 1050   285   -15. C     285 
(G  O E (U) UOp (Sht ) M
 1        2   1   -15. S
FBAN
(NFr) O (NTo) Nc C (Vmn (Vmx Bctrl (Qini) T A (Extr
  286            D 0950 1050   286   -10. C         
(G  O E (U) UOp (Sht ) M
 1        1   1   -10. S
FBAN
(NFr) O (NTo) Nc C (Vmn (Vmx Bctrl (Qini) T A (Extr
  291            D 0950 1050   291   111. C         
(G  O E (U) UOp (Sht ) M
 1        4   2   55.5 S
FBAN
(NFr) O (NTo) Nc C (Vmn (Vmx Bctrl (Qini) T A (Extr
  292            D 0950 1050   292    55. C         
(G  O E (U) UOp (Sht ) M
 1        2   1    55. S
FBAN
(NFr) O (NTo) Nc C (Vmn (Vmx Bctrl (Qini) T A (Extr
  294            D 1000 1100   294   100. C         
(G  O E (U) UOp (Sht ) M
 1        1   1   100. S
FBAN
(NFr) O (NTo) Nc C (Vmn (Vmx Bctrl (Qini) T A (Extr
  295            D 0950 1050   295    30. C         
(G  O E (U) UOp (Sht ) M
 1        1   0   -15. S
 2        5   2    15. S
FBAN
(NFr) O (NTo) Nc C (Vmn (Vmx Bctrl (Qini) T A (Extr
  298            D 0950 1050   298   222. C         
(G  O E (U) UOp (Sht ) M
 1        4   2   111. S
FBAN
(NFr) O (NTo) Nc C (Vmn (Vmx Bctrl (Qini) T A (Extr
  299            D 0950 1050   299        C         
(G  O E (U) UOp (Sht ) M
 1        1   0    20. S
FBAN
(NFr) O (NTo) Nc C (Vmn (Vmx Bctrl (Qini) T A (Extr
  332            D 0950 1050   332   50.8 C         
(G  O E (U) UOp (Sht ) M
 1        1   1   50.8 S
 2        1   0   61.1 S
 3        1   0   111. S
FBAN
(NFr) O (NTo) Nc C (Vmn (Vmx Bctrl (Qini) T A (Extr
  345            D 0950 1050   345    20. C         
(G  O E (U) UOp (Sht ) M
 1        2   1    20. S
FBAN
(NFr) O (NTo) Nc C (Vmn (Vmx Bctrl (Qini) T A (Extr
  355            D 0950 1050   355   -20. C         
(G  O E (U) UOp (Sht ) M
 1        1   1   -20. S
FBAN
(NFr) O (NTo) Nc C (Vmn (Vmx Bctrl (Qini) T A (Extr
  360            D 0950 1050   360   50.5 C         
(G  O E (U) UOp (Sht ) M
 1        1   1   50.5 S
 2        1   0   50.5 S
FBAN
(NFr) O (NTo) Nc C (Vmn (Vmx Bctrl (Qini) T A (Extr
  362            D 0950 1050   362   -30. C         
(G  O E (U) UOp (Sht ) M
 1        1   1   -30. S
FBAN
(NFr) O (NTo) Nc C (Vmn (Vmx Bctrl (Qini) T A (Extr
  363            D 0950 1050   363        C         
(G  O E (U) UOp (Sht ) M
 1        1   0    30. S
FBAN
(NFr) O (NTo) Nc C (Vmn (Vmx Bctrl (Qini) T A (Extr
  361     363  1 D 0950 1050   363        C     363 
(G  O E (U) UOp (Sht ) M
 1        1   0   -30. S
FBAN
(NFr) O (NTo) Nc C (Vmn (Vmx Bctrl (Qini) T A (Extr
  365            D 0950 1050   365   -20. C         
(G  O E (U) UOp (Sht ) M
 1        1   1   -20. S
FBAN
(NFr) O (NTo) Nc C (Vmn (Vmx Bctrl (Qini) T A (Extr
  366            D 0950 1050   366   -15. C         
(G  O E (U) UOp (Sht ) M
 1        1   1   -15. S
FBAN
(NFr) O (NTo) Nc C (Vmn (Vmx Bctrl (Qini) T A (Extr
  367            D 0950 1050   367   -10. C         
(G  O E (U) UOp (Sht ) M
 1        1   1   -10. S
FBAN
(NFr) O (NTo) Nc C (Vmn (Vmx Bctrl (Qini) T A (Extr
  376            D 0950 1050   376   -10. C         
(G  O E (U) UOp (Sht ) M
 1        1   1   -10. S
FBAN
(NFr) O (NTo) Nc C (Vmn (Vmx Bctrl (Qini) T A (Extr
  209     376  1 D 0950 1050   376        C     376 
(G  O E (U) UOp (Sht ) M
10        1   0   -15. S
FBAN
(NFr) O (NTo) Nc C (Vmn (Vmx Bctrl (Qini) T A (Extr
  381            D 0950 1050   381    50. C         
(G  O E (U) UOp (Sht ) M
 1        1   1    50. S
FBAN
...